Version 4
SHEET 1 1196 1280
WIRE -864 -64 -1024 -64
WIRE -464 -64 -800 -64
WIRE -656 0 -832 0
WIRE -464 0 -464 -64
WIRE -464 0 -576 0
WIRE -736 128 -768 128
WIRE -704 128 -736 128
WIRE -576 128 -640 128
WIRE -736 176 -736 128
WIRE -1360 224 -1376 224
WIRE -1216 224 -1280 224
WIRE -1168 224 -1216 224
WIRE -1024 224 -1024 -64
WIRE -1024 224 -1088 224
WIRE -944 224 -1024 224
WIRE -832 224 -832 0
WIRE -832 224 -880 224
WIRE -768 224 -832 224
WIRE -464 256 -464 0
WIRE -464 256 -624 256
WIRE -416 256 -464 256
WIRE -368 256 -416 256
WIRE -256 256 -288 256
WIRE -208 256 -256 256
WIRE -96 256 -144 256
WIRE -1024 272 -1024 224
WIRE -1216 288 -1216 224
WIRE -768 288 -800 288
WIRE -256 304 -256 256
WIRE 144 320 144 272
WIRE 128 352 -64 352
WIRE -736 368 -736 336
WIRE -96 368 -96 336
WIRE -64 368 -64 352
WIRE -64 368 -96 368
WIRE -96 384 -96 368
WIRE 272 400 256 400
WIRE 304 400 272 400
WIRE 976 400 384 400
WIRE -256 416 -256 368
WIRE -1216 448 -1216 352
WIRE -1024 448 -1024 352
WIRE -800 448 -800 288
WIRE -688 448 -800 448
WIRE -528 448 -688 448
WIRE 128 448 80 448
WIRE -800 480 -800 448
WIRE -688 480 -688 448
WIRE -528 480 -528 448
WIRE 240 480 240 432
WIRE -96 528 -96 464
WIRE 144 544 144 480
WIRE -800 592 -800 544
WIRE -688 592 -688 560
WIRE -688 592 -800 592
WIRE 176 592 176 464
WIRE 240 592 240 544
WIRE -688 624 -688 592
WIRE -528 624 -528 560
WIRE 80 624 80 448
WIRE 976 656 976 400
WIRE -1040 912 -1248 912
WIRE -688 912 -816 912
WIRE -1424 992 -1424 944
WIRE -1040 992 -1072 992
WIRE -688 992 -816 992
WIRE -576 992 -688 992
WIRE -496 992 -576 992
WIRE -688 1008 -688 992
WIRE -576 1008 -576 992
WIRE -1248 1072 -1248 912
WIRE -1184 1072 -1248 1072
WIRE -1040 1072 -1104 1072
WIRE -768 1072 -816 1072
WIRE -1248 1120 -1248 1072
WIRE -768 1120 -768 1072
WIRE -688 1120 -688 1088
WIRE -688 1120 -768 1120
WIRE -688 1136 -688 1120
WIRE -1424 1216 -1424 1072
WIRE -1248 1248 -1248 1200
WIRE -688 1264 -688 1216
WIRE -576 1264 -576 1072
FLAG -1424 1216 0
FLAG -1216 448 0
FLAG -1424 944 VCC
FLAG -1024 448 0
FLAG -688 624 0
FLAG -576 128 0
FLAG -528 624 VCC
FLAG -736 368 0
FLAG -768 128 VCC
FLAG -416 256 SineOut
FLAG -1248 1248 0
FLAG -688 1264 0
FLAG -1072 992 0
FLAG -496 992 VCC
FLAG -576 1264 0
FLAG -688 912 squareOut
FLAG -1376 224 squareOut
FLAG -1216 224 LP-Filter
FLAG 976 656 0
FLAG 144 272 0
FLAG 144 544 VCC
FLAG -256 416 0
FLAG 80 624 0
FLAG -96 528 0
FLAG 272 400 L386Out
SYMBOL voltage -1424 976 M0
SYMATTR InstName V1
SYMATTR Value 5V
SYMBOL cap -1200 288 M0
SYMATTR InstName C3
SYMATTR Value 10n
SYMBOL res -1184 208 M90
WINDOW 0 0 56 VBottom 2
WINDOW 3 32 56 VTop 2
SYMATTR InstName R3
SYMATTR Value 138k
SYMBOL res -1040 256 R0
SYMATTR InstName R4
SYMATTR Value 88.7k
SYMBOL res -704 464 R0
SYMATTR InstName R5
SYMATTR Value 499k
SYMBOL res -544 464 R0
SYMATTR InstName R6
SYMATTR Value 499k
SYMBOL res -560 -16 R90
WINDOW 0 0 56 VBottom 2
WINDOW 3 32 56 VTop 2
SYMATTR InstName R7
SYMATTR Value 276k
SYMBOL cap -880 208 R90
WINDOW 0 0 32 VBottom 2
WINDOW 3 32 32 VTop 2
SYMATTR InstName C4
SYMATTR Value 10nF
SYMBOL cap -784 544 R180
WINDOW 0 24 56 Left 2
WINDOW 3 24 8 Left 2
SYMATTR InstName C5
SYMATTR Value 1µF
SYMBOL cap -800 -80 R90
WINDOW 0 0 32 VBottom 2
WINDOW 3 32 32 VTop 2
SYMATTR InstName C6
SYMATTR Value 10nF
SYMBOL cap -640 112 R90
WINDOW 0 0 32 VBottom 2
WINDOW 3 32 32 VTop 2
SYMATTR InstName C7
SYMATTR Value 0.1µF
SYMBOL Opamps/LTC6258 -736 256 R0
SYMATTR InstName U2
SYMBOL SpecialFunctions/LTC6992-1 -928 992 R0
SYMATTR InstName U3
SYMBOL res -1264 1104 R0
SYMATTR InstName R2
SYMATTR Value 66.5k
SYMBOL res -704 992 R0
SYMATTR InstName R9
SYMATTR Value 1Mega
SYMBOL res -704 1120 R0
SYMATTR InstName R10
SYMATTR Value 681k
SYMBOL res -1088 1056 R90
WINDOW 0 0 56 VBottom 2
WINDOW 3 32 56 VTop 2
SYMATTR InstName R11
SYMATTR Value 66.5k
SYMBOL cap -592 1008 R0
SYMATTR InstName C8
SYMATTR Value 0.1µF
SYMBOL res -1264 208 R90
WINDOW 0 0 56 VBottom 2
WINDOW 3 32 56 VTop 2
SYMATTR InstName R1
SYMATTR Value 120k
SYMBOL res 400 384 R90
WINDOW 0 0 56 VBottom 2
WINDOW 3 32 56 VTop 2
SYMATTR InstName R8
SYMATTR Value 4
SYMBOL Misc/LM386 192 400 M180
SYMATTR InstName U1
SYMBOL res -272 240 R90
WINDOW 0 0 56 VBottom 2
WINDOW 3 32 56 VTop 2
SYMATTR InstName R13
SYMATTR Value 120k
SYMBOL cap -272 304 R0
SYMATTR InstName C9
SYMATTR Value 10nF
SYMBOL cap -144 240 R90
WINDOW 0 0 32 VBottom 2
WINDOW 3 32 32 VTop 2
SYMATTR InstName C10
SYMATTR Value 1µF
SYMBOL res -112 240 R0
SYMATTR InstName R14
SYMATTR Value 10Mega
SYMBOL res -112 368 R0
SYMATTR InstName R15
SYMATTR Value 1k
SYMBOL cap 224 480 R0
SYMATTR InstName C11
SYMATTR Value 10µF
TEXT -120 1096 Right 2 !.tran 0 0.4
TEXT -1368 104 Left 2 ;LP Filter
RECTANGLE Normal -1500 140 -1156 476 2
