Version 4
SHEET 1 1196 1096
WIRE -1248 -560 -1280 -560
WIRE -1120 -560 -1168 -560
WIRE -1584 -544 -1584 -592
WIRE -1216 -448 -1216 -464
WIRE -1584 -432 -1584 -464
WIRE -1584 -432 -1760 -432
WIRE -1488 -432 -1584 -432
WIRE -1392 -432 -1424 -432
WIRE -1280 -432 -1280 -560
WIRE -1280 -432 -1312 -432
WIRE -1248 -432 -1280 -432
WIRE -1120 -416 -1120 -560
WIRE -1120 -416 -1184 -416
WIRE -1040 -416 -1120 -416
WIRE -1760 -400 -1760 -432
WIRE -1248 -400 -1312 -400
WIRE -1216 -352 -1216 -384
WIRE -1760 -288 -1760 -320
WIRE -1424 -288 -1504 -288
WIRE -1312 -288 -1312 -400
WIRE -1312 -288 -1344 -288
WIRE -1280 -288 -1312 -288
WIRE -1168 -288 -1200 -288
WIRE -1136 -288 -1168 -288
WIRE -1312 -176 -1312 -288
WIRE -1280 -176 -1312 -176
WIRE -1168 -176 -1168 -288
WIRE -1168 -176 -1216 -176
WIRE -1168 128 -1216 128
WIRE -1616 144 -1760 144
WIRE -1504 144 -1616 144
WIRE -1168 160 -1168 128
WIRE -1616 240 -1616 144
WIRE -1184 256 -1200 256
WIRE -1504 272 -1504 144
WIRE -1456 272 -1504 272
WIRE -1216 272 -1216 128
WIRE -1216 272 -1232 272
WIRE -1216 336 -1232 336
WIRE -1200 336 -1200 256
WIRE -1200 336 -1216 336
WIRE -1104 336 -1104 256
WIRE -1104 336 -1120 336
WIRE -1088 336 -1104 336
WIRE -1760 400 -1760 144
WIRE -1616 400 -1616 320
WIRE -1488 400 -1616 400
WIRE -1456 400 -1488 400
WIRE -1088 400 -1088 336
WIRE -1088 400 -1232 400
WIRE -1040 400 -1088 400
WIRE -1008 400 -1040 400
WIRE -880 400 -928 400
WIRE -832 400 -880 400
WIRE -704 400 -752 400
WIRE -640 400 -704 400
WIRE -496 400 -560 400
WIRE -304 400 -496 400
WIRE -240 400 -304 400
WIRE -304 416 -304 400
WIRE -1456 464 -1504 464
WIRE -1168 464 -1232 464
WIRE -1120 480 -1120 464
WIRE -32 480 -32 448
WIRE -1504 496 -1504 464
WIRE -880 496 -880 400
WIRE -704 496 -704 400
WIRE -496 496 -496 400
WIRE -1616 512 -1616 400
WIRE -304 512 -304 496
WIRE -208 512 -304 512
WIRE -48 512 -144 512
WIRE -304 544 -304 512
WIRE 176 560 80 560
WIRE 224 560 176 560
WIRE 368 560 288 560
WIRE 384 560 368 560
WIRE 512 560 464 560
WIRE 672 560 512 560
WIRE 832 560 672 560
WIRE -1168 576 -1168 464
WIRE -1120 576 -1120 560
WIRE -1120 576 -1168 576
WIRE 176 592 176 560
WIRE 512 592 512 560
WIRE 672 592 672 560
WIRE 832 592 832 560
WIRE -48 608 -144 608
WIRE -1760 624 -1760 480
WIRE -1616 624 -1616 576
WIRE -1504 624 -1504 560
WIRE -880 624 -880 560
WIRE -704 624 -704 560
WIRE -496 624 -496 560
WIRE 64 656 64 592
WIRE -304 672 -304 624
WIRE -144 672 -144 608
WIRE -32 672 -32 640
WIRE 176 672 176 656
WIRE -1120 688 -1120 656
WIRE 0 688 0 624
WIRE 512 752 512 656
WIRE 672 752 672 672
WIRE 672 752 512 752
WIRE 832 752 832 672
WIRE 832 752 672 752
WIRE 176 768 176 752
WIRE 672 800 672 752
WIRE 0 816 0 752
WIRE 64 816 64 736
FLAG -1616 624 0
FLAG -1504 624 0
FLAG -1760 624 0
FLAG -1168 160 0
FLAG -880 624 0
FLAG -1760 144 VCC
FLAG -704 624 0
FLAG -496 624 0
FLAG -144 672 0
FLAG -32 448 0
FLAG -32 672 VCC
FLAG 176 768 0
FLAG 672 800 0
FLAG -240 400 SineOut
IOPIN -240 400 Out
FLAG 832 560 SpeakerOut
IOPIN 832 560 Out
FLAG -1040 400 Square
FLAG -880 400 Triangle
FLAG -704 400 Sawtooth
FLAG 368 560 LM386-Out
FLAG -304 672 0
FLAG -1216 336 T
FLAG -1488 400 T
FLAG -1584 -592 VCC
FLAG -1504 -288 VCC
FLAG -1216 -464 VCC
FLAG -1216 -352 0
FLAG -1136 -288 0
FLAG -1760 -288 0
FLAG -1040 -416 micBuffered
FLAG -1120 464 VCC
FLAG -1120 688 0
SYMBOL Misc/NE555 -1344 368 M0
SYMATTR InstName U1
SYMBOL voltage -1760 384 M0
SYMATTR InstName V1
SYMATTR Value 5V
SYMBOL res -1104 352 M270
WINDOW 0 32 56 VTop 2
WINDOW 3 0 56 VBottom 2
SYMATTR InstName R1
SYMATTR Value 76.8k
SYMBOL cap -1488 496 M0
SYMATTR InstName C1
SYMATTR Value 0.1µF
SYMBOL cap -1600 512 M0
SYMATTR InstName C2
SYMATTR Value 0.1µF
SYMBOL cap -864 496 M0
SYMATTR InstName C3
SYMATTR Value 10µF
SYMBOL res -1024 384 M90
WINDOW 0 0 56 VBottom 2
WINDOW 3 32 56 VTop 2
SYMATTR InstName R2
SYMATTR Value 180
SYMBOL res -848 384 M90
WINDOW 0 0 56 VBottom 2
WINDOW 3 32 56 VTop 2
SYMATTR InstName R3
SYMATTR Value 180
SYMBOL res -656 384 M90
WINDOW 0 0 56 VBottom 2
WINDOW 3 32 56 VTop 2
SYMATTR InstName R4
SYMATTR Value 180
SYMBOL cap -688 496 M0
SYMATTR InstName C4
SYMATTR Value 10µF
SYMBOL cap -480 496 M0
SYMATTR InstName C5
SYMATTR Value 10µF
SYMBOL Misc/LM386 16 560 M180
SYMATTR InstName U2
SYMBOL cap 192 592 M0
SYMATTR InstName C10
SYMATTR Value 0.05µF
SYMBOL res 192 656 M0
SYMATTR InstName R5
SYMATTR Value 10
SYMBOL cap -208 496 M90
WINDOW 0 0 32 VBottom 2
WINDOW 3 32 32 VTop 2
SYMATTR InstName C8
SYMATTR Value 1µF
SYMBOL res 480 544 R90
WINDOW 0 0 56 VBottom 2
WINDOW 3 32 56 VTop 2
SYMATTR InstName R8
SYMATTR Value 6.25
SYMBOL res 848 688 R180
WINDOW 0 36 76 Left 2
WINDOW 3 36 40 Left 2
SYMATTR InstName R10
SYMATTR Value 32
SYMBOL ind 656 576 R0
SYMATTR InstName L2
SYMATTR Value 80mH
SYMBOL cap 496 592 R0
SYMATTR InstName C7
SYMATTR Value 356µF
SYMBOL cap -16 688 R0
SYMATTR InstName C6
SYMATTR Value 10µF
SYMBOL cap 288 544 R90
WINDOW 0 0 32 VBottom 2
WINDOW 3 32 32 VTop 2
SYMATTR InstName C9
SYMATTR Value 800µF
SYMBOL res -320 528 R0
SYMATTR InstName R14
SYMATTR Value 1k
SYMBOL res -320 400 R0
SYMATTR InstName R9
SYMATTR Value 6k
SYMBOL res 48 640 R0
SYMATTR InstName R6
SYMATTR Value 100k
SYMBOL res -1632 224 R0
SYMATTR InstName R7
SYMATTR Value 2Mega
SYMBOL res -1088 240 R90
WINDOW 0 0 56 VBottom 2
WINDOW 3 32 56 VTop 2
SYMATTR InstName R11
SYMATTR Value 4Mega
SYMBOL Opamps/LT1022 176 -192 R0
SYMATTR InstName U3
SYMBOL res -1600 -560 R0
SYMATTR InstName R12
SYMATTR Value 2.2k
SYMBOL res -1296 -448 R90
WINDOW 0 0 56 VBottom 2
WINDOW 3 32 56 VTop 2
SYMATTR InstName R13
SYMATTR Value 10k
SYMBOL res -1440 -272 R270
WINDOW 0 32 56 VTop 2
WINDOW 3 0 56 VBottom 2
SYMATTR InstName R15
SYMATTR Value 10k
SYMBOL res -1296 -272 R270
WINDOW 0 32 56 VTop 2
WINDOW 3 0 56 VBottom 2
SYMATTR InstName R16
SYMATTR Value 10k
SYMBOL res -1264 -544 R270
WINDOW 0 32 56 VTop 2
WINDOW 3 0 56 VBottom 2
SYMATTR InstName R17
SYMATTR Value 80k
SYMBOL cap -1424 -448 R90
WINDOW 0 0 32 VBottom 2
WINDOW 3 32 32 VTop 2
SYMATTR InstName C11
SYMATTR Value 4.7µF
SYMBOL cap -1216 -192 R90
WINDOW 0 0 32 VBottom 2
WINDOW 3 32 32 VTop 2
SYMATTR InstName C12
SYMATTR Value 4.7µF
SYMBOL Opamps/AD8605 -1216 -480 R0
SYMATTR InstName U4
SYMBOL Misc/signal -1760 -416 R0
SYMATTR InstName V2
SYMATTR Value SINE(0 0.1 10k)
SYMBOL res -1136 464 R0
SYMATTR InstName R18
SYMATTR Value 10k
SYMBOL Misc/signal -1120 560 R0
SYMATTR InstName V3
SYMATTR Value SINE(0 20k 10k)
TEXT -560 -96 Right 2 !.tran 0.05 0.5
TEXT 640 440 Left 2 ;Speaker
TEXT -56 232 Left 2 ;Amp
TEXT -896 224 Left 2 ;Square to Triangle to Sine
TEXT -1056 968 Left 2 ;http://www.epanorama.net/documents/audio/speaker_impedance.html
TEXT -1592 56 Left 2 ;Square wave generator
TEXT -704 -48 Left 2 !.wave "SpeakerOut92Hz.wav" 16 44100 SpeakerOut
TEXT -1056 1024 Left 2 ;https://electrostud.fandom.com/wiki/Using_WAVE_files_as_input/output_in_LTSpice
TEXT -1056 912 Left 2 ;http://www.learningaboutelectronics.com/Articles/555-timer-clock-circuit.php
TEXT -1056 1080 Left 2 ;https://www.electronics-tutorials.ws/waveforms/555_oscillator.html
TEXT -1880 -200 Left 2 ;Human speech: 20hz to 20kHz
RECTANGLE Normal 364 472 1016 852 2
RECTANGLE Normal -408 264 316 856 2
RECTANGLE Normal -460 264 -1036 856 2
RECTANGLE Normal -1852 92 -1080 856 2
