Version 4
SHEET 1 1648 904
WIRE 400 64 192 64
WIRE 672 64 624 64
WIRE 192 144 192 64
WIRE 400 144 352 144
WIRE 704 144 624 144
WIRE 864 144 704 144
WIRE 704 160 704 144
WIRE 352 176 352 144
WIRE 864 176 864 144
WIRE 400 224 288 224
WIRE 656 224 624 224
WIRE 288 240 288 224
WIRE 192 256 192 224
WIRE 656 256 656 224
WIRE 704 256 704 240
WIRE 704 256 656 256
WIRE 704 272 704 256
WIRE 864 288 864 256
WIRE 288 368 288 320
WIRE 704 368 704 352
FLAG 352 176 0
FLAG 704 368 0
FLAG 672 64 VOUT
FLAG 864 288 0
FLAG 288 368 0
FLAG 192 256 0
SYMBOL LTC6992-1 512 144 R0
WINDOW 0 0 -48 Invisible 2
SYMATTR InstName U1
SYMBOL res 272 224 R0
SYMATTR InstName RSET
SYMATTR Value 536k
SYMBOL res 688 144 R0
SYMATTR InstName R1
SYMATTR Value 523k
SYMBOL res 688 256 R0
SYMATTR InstName R2
SYMATTR Value 1Meg
SYMBOL voltage 864 160 R0
SYMATTR InstName V+
SYMATTR Value 5.0
SYMBOL voltage 192 128 R0
SYMATTR InstName V1
SYMATTR Value SINE(0.5 0.4 85)
TEXT 400 304 Left 2 !.tran 2
TEXT -272 -24 Left 2 ;Ideal
TEXT -64 -24 Left 2 ;Actual
TEXT -480 24 Left 2 ;FOUT
TEXT -272 24 Left 2 ;92.0Hz
TEXT -64 24 Left 2 ;91.8Hz
TEXT -480 56 Left 2 ;DUTY CYCLE
TEXT -272 56 Left 2 ;0% to 100%
TEXT -64 56 Left 2 ;0% to 100%
TEXT -480 88 Left 2 ;VPWM
TEXT -272 88 Left 2 ;0.1V to 0.9V
TEXT -64 88 Left 2 ;0.1V to 0.9V
TEXT -480 128 Left 2 ;RSET
TEXT -272 128 Left 2 ;132.7k
TEXT -64 128 Left 2 ;133k
TEXT -480 160 Left 2 ;DIVCODE
TEXT -64 160 Left 2 ;6
TEXT -480 200 Left 2 ;NDIV
TEXT -64 200 Left 2 ;4096
TEXT -480 232 Left 2 ;POLARITY
TEXT -64 232 Left 2 ;0
TEXT -480 264 Left 2 ;FMASTER
TEXT -64 264 Left 2 ;376kHz
TEXT -480 304 Left 2 ;TSTARTUP
TEXT -64 304 Left 2 ;1.33ms
TEXT -480 336 Left 2 ;ISET
TEXT -64 336 Left 2 ;7.52uA
TEXT 608 672 Left 2 ;LINEAR TECHNOLOGY CORPORATION
TEXT 608 720 Left 2 ;LTC6992 - TimerBlox Voltage-Controlled \nPulse Width Modulator (PWM)
TEXT 608 840 Left 1 ;Generated By LTC6992 Web Tool\nThu Jan 16 2020 21:20:02 GMT-0500 (EST)\nCopyright (C) 2020 Linear Technology Corporation
TEXT 128 672 Left 2 ;CUSTOMER NOTICE
TEXT 128 704 Left 1 ;If a symbol is not found, please update the symbols by selecting\nthe Sync Release command from the Tools menu in the Windows\nversion, or by clicking the Model Update button in the Operation\nTab in the Control Panel in the Mac version.\nIt remains the customer's responsibility to verify proper and\nreliable operation in the actual application. Component\nsubstitution and printed circuit board layout may significantly\naffect circuit performance or reliability.\nContact your local sales representative for assistance.
TEXT -496 672 Left 2 ;INSTRUCTIONS
TEXT -496 704 Left 2 ;Run the transient simulation, then plot VOUT and VPWM\nto verify the the frequency and duty cycle.\n
TEXT 400 -64 Left 2 ;Voice: 85Hz to 255Hz
TEXT 248 -16 Left 2 !.wave "SpeakerOut92HzPWM.wav" 16 44100 VOUT
LINE Normal 272 144 272 144 2
LINE Normal 272 208 272 208 2
LINE Normal -270 -2 -170 -2
LINE Normal -60 -2 40 -2
RECTANGLE Normal -500 -228 1100 900
RECTANGLE Normal 1100 820 596 692
RECTANGLE Normal 1100 692 596 644
RECTANGLE Normal 596 900 108 644
RECTANGLE Normal 108 900 -500 644
